<?xml version="1.0" encoding="UTF-8"?>

<!-- generated on 05/11/21 14:23:46 by Eclipse SUMO netedit Version 1.8.0
<configuration xmlns:xsi="http://www.w3.org/2001/XMLSchema-instance" xsi:noNamespaceSchemaLocation="http://sumo.dlr.de/xsd/netconvertConfiguration.xsd">

    <input>
        <sumo-net-file value="C:\Users\Hayrullah\Sumo\2021-05-11-14-19-20\osm.net.xml"/>
    </input>

    <output>
        <output-file value="D:\mosaic-installation-files\version-21.0\steglitz\sumo-test-files\dlsu-map-ikinci.net.xml"/>
        <output.street-names value="true"/>
    </output>

    <processing>
        <geometry.min-radius.fix.railways value="false"/>
        <geometry.max-grade.fix value="false"/>
        <offset.disable-normalization value="true"/>
        <lefthand value="true"/>
    </processing>

    <junctions>
        <no-internal-links value="false"/>
        <no-turnarounds value="true"/>
        <junctions.corner-detail value="5"/>
        <junctions.limit-turn-speed value="5.5"/>
        <rectangular-lane-cut value="false"/>
    </junctions>

    <pedestrian>
        <walkingareas value="true"/>
    </pedestrian>

    <report>
        <aggregate-warnings value="5"/>
    </report>

</configuration>
-->

<net version="1.6" junctionCornerDetail="5" walkingareas="true" lefthand="true" limitTurnSpeed="5.50" xmlns:xsi="http://www.w3.org/2001/XMLSchema-instance" xsi:noNamespaceSchemaLocation="http://sumo.dlr.de/xsd/net_file.xsd">

    <location netOffset="-283186.86,-1610139.45" convBoundary="0.00,0.00,1583.20,2223.06" origBoundary="120.980678,14.538009,121.003196,14.654239" projParameter="+proj=utm +zone=51 +ellps=WGS84 +datum=WGS84 +units=m +no_defs"/>

    <type id="highway.bridleway" priority="1" numLanes="1" speed="2.78" allow="pedestrian" oneway="1" width="2.00"/>
    <type id="highway.bus_guideway" priority="1" numLanes="1" speed="13.89" allow="bus" oneway="1"/>
    <type id="highway.cycleway" priority="1" numLanes="1" speed="8.33" allow="bicycle" oneway="1" width="1.00"/>
    <type id="highway.footway" priority="1" numLanes="1" speed="2.78" allow="pedestrian" oneway="1" width="2.00"/>
    <type id="highway.ford" priority="1" numLanes="1" speed="2.78" allow="army" oneway="1"/>
    <type id="highway.living_street" priority="2" numLanes="1" speed="2.78" disallow="tram rail_urban rail rail_electric rail_fast ship" oneway="1"/>
    <type id="highway.motorway" priority="14" numLanes="2" speed="27.78" allow="private emergency authority army vip passenger hov taxi bus coach delivery truck trailer motorcycle evehicle custom1 custom2" oneway="1"/>
    <type id="highway.motorway_link" priority="9" numLanes="1" speed="16.67" allow="private emergency authority army vip passenger hov taxi bus coach delivery truck trailer motorcycle evehicle custom1 custom2" oneway="1"/>
    <type id="highway.path" priority="1" numLanes="1" speed="2.78" allow="pedestrian bicycle" oneway="1" width="2.00"/>
    <type id="highway.pedestrian" priority="1" numLanes="1" speed="2.78" allow="pedestrian" oneway="1" width="2.00"/>
    <type id="highway.primary" priority="12" numLanes="2" speed="13.89" disallow="pedestrian tram rail_urban rail rail_electric rail_fast ship" oneway="1" sidewalkWidth="-1.00"/>
    <type id="highway.primary_link" priority="7" numLanes="1" speed="13.89" disallow="pedestrian tram rail_urban rail rail_electric rail_fast ship" oneway="1" sidewalkWidth="-1.00"/>
    <type id="highway.raceway" priority="15" numLanes="2" speed="83.33" allow="vip" oneway="1"/>
    <type id="highway.residential" priority="3" numLanes="1" speed="13.89" disallow="pedestrian tram rail_urban rail rail_electric rail_fast ship" oneway="1" sidewalkWidth="-1.00"/>
    <type id="highway.secondary" priority="11" numLanes="1" speed="13.89" disallow="pedestrian tram rail_urban rail rail_electric rail_fast ship" oneway="1" sidewalkWidth="-1.00"/>
    <type id="highway.secondary_link" priority="6" numLanes="1" speed="13.89" disallow="pedestrian tram rail_urban rail rail_electric rail_fast ship" oneway="1" sidewalkWidth="-1.00"/>
    <type id="highway.service" priority="1" numLanes="1" speed="5.56" allow="pedestrian delivery bicycle" oneway="1"/>
    <type id="highway.stairs" priority="1" numLanes="1" speed="1.39" allow="pedestrian" oneway="1" width="2.00"/>
    <type id="highway.step" priority="1" numLanes="1" speed="1.39" allow="pedestrian" oneway="1" width="2.00"/>
    <type id="highway.steps" priority="1" numLanes="1" speed="1.39" allow="pedestrian" oneway="1" width="2.00"/>
    <type id="highway.tertiary" priority="10" numLanes="1" speed="13.89" disallow="pedestrian tram rail_urban rail rail_electric rail_fast ship" oneway="1" sidewalkWidth="-1.00"/>
    <type id="highway.tertiary_link" priority="5" numLanes="1" speed="13.89" disallow="pedestrian tram rail_urban rail rail_electric rail_fast ship" oneway="1" sidewalkWidth="-1.00"/>
    <type id="highway.track" priority="1" numLanes="1" speed="5.56" allow="pedestrian motorcycle moped bicycle" oneway="1"/>
    <type id="highway.trunk" priority="13" numLanes="2" speed="13.89" disallow="pedestrian bicycle tram rail_urban rail rail_electric rail_fast ship" oneway="1"/>
    <type id="highway.trunk_link" priority="8" numLanes="1" speed="13.89" disallow="pedestrian bicycle tram rail_urban rail rail_electric rail_fast ship" oneway="1"/>
    <type id="highway.unclassified" priority="4" numLanes="1" speed="13.89" disallow="pedestrian tram rail_urban rail rail_electric rail_fast ship" oneway="1" sidewalkWidth="-1.00"/>
    <type id="highway.unsurfaced" priority="1" numLanes="1" speed="8.33" disallow="tram rail_urban rail rail_electric rail_fast ship" oneway="1"/>
    <type id="railway.highspeed" priority="21" numLanes="1" speed="69.44" allow="rail_fast" oneway="1"/>
    <type id="railway.light_rail" priority="19" numLanes="1" speed="27.78" allow="rail_urban" oneway="1"/>
    <type id="railway.preserved" priority="16" numLanes="1" speed="27.78" allow="rail" oneway="1"/>
    <type id="railway.rail" priority="20" numLanes="1" speed="44.44" allow="rail" oneway="1"/>
    <type id="railway.subway" priority="18" numLanes="1" speed="27.78" allow="rail_urban" oneway="1"/>
    <type id="railway.tram" priority="17" numLanes="1" speed="13.89" allow="tram" oneway="1"/>

    <edge id=":1132110707_0" function="internal">
        <lane id=":1132110707_0_0" index="0" disallow="pedestrian tram rail_urban rail rail_electric rail_fast ship" speed="11.11" length="13.29" shape="877.60,1024.92 865.53,1019.52"/>
        <lane id=":1132110707_0_1" index="1" disallow="pedestrian tram rail_urban rail rail_electric rail_fast ship" speed="11.11" length="13.29" shape="876.33,1027.86 864.19,1022.43"/>
        <lane id=":1132110707_0_2" index="2" disallow="pedestrian tram rail_urban rail rail_electric rail_fast ship" speed="11.11" length="13.29" shape="875.06,1030.79 862.86,1025.34"/>
    </edge>
    <edge id=":1132110707_3" function="internal">
        <lane id=":1132110707_3_0" index="0" disallow="pedestrian tram rail_urban rail rail_electric rail_fast ship" speed="6.69" length="9.54" shape="875.06,1030.79 871.65,1029.52 869.05,1029.01 867.24,1029.26 866.22,1030.26"/>
    </edge>
    <edge id=":1132110707_4" function="internal">
        <lane id=":1132110707_4_0" index="0" disallow="pedestrian tram rail_urban rail rail_electric rail_fast ship" speed="7.37" length="11.75" shape="869.14,1031.57 869.79,1028.86 869.18,1026.44 867.31,1024.29 864.19,1022.43"/>
    </edge>
    <edge id=":1132110707_5" function="internal">
        <lane id=":1132110707_5_0" index="0" disallow="pedestrian tram rail_urban rail rail_electric rail_fast ship" speed="6.70" length="9.54" shape="869.14,1031.57 869.21,1030.14 868.19,1028.62 866.07,1027.02 862.86,1025.34"/>
    </edge>
    <edge id=":1132110707_6" function="internal">
        <lane id=":1132110707_6_0" index="0" disallow="pedestrian tram rail_urban rail rail_electric rail_fast ship" speed="3.65" length="4.67" shape="869.14,1031.57 868.90,1030.14 868.33,1029.45 867.44,1029.49 866.22,1030.26"/>
    </edge>
    <edge id=":1132110707_c0" function="crossing" crossingEdges="367045937#0">
        <lane id=":1132110707_c0_0" index="0" allow="pedestrian" speed="1.00" length="9.60" width="4.00" shape="872.58,1031.46 876.41,1022.66"/>
    </edge>
    <edge id=":1132110707_c1" function="crossing" crossingEdges="97802007 -97802007">
        <lane id=":1132110707_c1_0" index="0" allow="pedestrian" speed="1.00" length="6.40" width="4.00" shape="865.57,1027.79 871.42,1030.39"/>
    </edge>
    <edge id=":1132110707_c2" function="crossing" crossingEdges="367045937#2">
        <lane id=":1132110707_c2_0" index="0" allow="pedestrian" speed="1.00" length="9.60" width="4.00" shape="868.02,1018.90 864.00,1027.62"/>
    </edge>
    <edge id=":1132110707_w0" function="walkingarea">
        <lane id=":1132110707_w0_0" index="0" allow="pedestrian" speed="1.00" length="8.32" width="4.00" shape="869.83,1019.74 866.20,1018.07 867.45,1015.34 879.43,1020.70 878.24,1023.45 874.57,1021.86"/>
    </edge>
    <edge id=":1132110707_w1" function="walkingarea">
        <lane id=":1132110707_w1_0" index="0" allow="pedestrian" speed="1.00" length="1.80" width="4.00" shape="874.42,1032.26 872.43,1033.03 870.61,1032.22 870.88,1031.84 871.30,1031.62 871.86,1031.55 872.57,1031.64 873.42,1031.87"/>
    </edge>
    <edge id=":1132110707_w2" function="walkingarea">
        <lane id=":1132110707_w2_0" index="0" allow="pedestrian" speed="1.00" length="1.80" width="4.00" shape="864.76,1029.61 862.93,1028.80 862.19,1026.79 863.14,1027.27 863.89,1027.75 864.42,1028.23 864.74,1028.69 864.86,1029.16"/>
    </edge>
    <edge id=":1132110709_0" function="internal">
        <lane id=":1132110709_0_0" index="0" disallow="pedestrian tram rail_urban rail rail_electric rail_fast ship" speed="11.11" length="13.23" shape="826.98,1575.94 828.10,1572.18 828.94,1569.63 829.91,1567.12 831.43,1563.50"/>
    </edge>
    <edge id=":1132110709_1" function="internal">
        <lane id=":1132110709_1_0" index="0" disallow="pedestrian tram rail_urban rail rail_electric rail_fast ship" speed="6.75" length="9.40" shape="826.98,1575.94 827.83,1572.43 828.08,1569.80 827.70,1568.03 826.72,1567.14"/>
    </edge>
    <edge id=":1132110709_2" function="internal">
        <lane id=":1132110709_2_0" index="0" disallow="pedestrian tram rail_urban rail rail_electric rail_fast ship" speed="6.77" length="9.39" shape="825.65,1570.16 826.98,1570.08 828.38,1568.95 829.87,1566.76 831.43,1563.50"/>
    </edge>
    <edge id=":1132110709_3" function="internal">
        <lane id=":1132110709_3_0" index="0" disallow="pedestrian tram rail_urban rail rail_electric rail_fast ship" speed="3.65" length="4.67" shape="825.65,1570.16 827.05,1569.80 827.69,1569.18 827.58,1568.29 826.72,1567.14"/>
    </edge>
    <edge id=":1132110709_c0" function="crossing" crossingEdges="208920412#3">
        <lane id=":1132110709_c0_0" index="0" allow="pedestrian" speed="1.00" length="3.20" width="4.00" shape="832.12,1565.97 829.18,1564.72"/>
    </edge>
    <edge id=":1132110709_c1" function="crossing" crossingEdges="208920412#2">
        <lane id=":1132110709_c1_0" index="0" allow="pedestrian" speed="1.00" length="3.20" width="4.00" shape="826.01,1573.57 829.08,1574.48"/>
    </edge>
    <edge id=":1132110709_c2" function="crossing" crossingEdges="97802009 -97802009">
        <lane id=":1132110709_c2_0" index="0" allow="pedestrian" speed="1.00" length="6.40" width="4.00" shape="829.13,1566.30 827.00,1572.33"/>
    </edge>
    <edge id=":1132110709_w0" function="walkingarea">
        <lane id=":1132110709_w0_0" index="0" allow="pedestrian" speed="1.00" length="8.17" width="4.00" shape="832.91,1564.13 835.67,1565.30 831.39,1577.25 828.51,1576.40 829.30,1573.73 829.90,1571.77 830.45,1570.17 831.05,1568.59 831.82,1566.69"/>
    </edge>
    <edge id=":1132110709_w1" function="walkingarea">
        <lane id=":1132110709_w1_0" index="0" allow="pedestrian" speed="1.00" length="1.79" width="4.00" shape="825.44,1575.49 824.45,1573.55 825.12,1571.67 825.49,1571.90 825.74,1572.30 825.86,1572.85 825.85,1573.57 825.71,1574.45"/>
    </edge>
    <edge id=":1132110709_w2" function="walkingarea">
        <lane id=":1132110709_w2_0" index="0" allow="pedestrian" speed="1.00" length="1.80" width="4.00" shape="827.25,1565.63 827.91,1563.74 829.96,1562.88 829.50,1563.85 829.05,1564.62 828.60,1565.18 828.15,1565.54 827.70,1565.69"/>
    </edge>
    <edge id=":1132110711_0" function="internal">
        <lane id=":1132110711_0_0" index="0" disallow="pedestrian tram rail_urban rail rail_electric rail_fast ship" speed="11.11" length="9.21" shape="837.94,1093.71 834.28,1102.16"/>
    </edge>
    <edge id=":1132110711_1" function="internal">
        <lane id=":1132110711_1_0" index="0" disallow="pedestrian tram rail_urban rail rail_electric rail_fast ship" speed="6.86" length="10.38" shape="837.94,1093.71 837.78,1095.42 838.83,1097.12 841.09,1098.80 844.56,1100.48"/>
    </edge>
    <edge id=":1132110711_2" function="internal">
        <lane id=":1132110711_2_0" index="0" disallow="pedestrian tram rail_urban rail rail_electric rail_fast ship" speed="3.65" length="4.67" shape="837.94,1093.71 838.19,1095.13 838.75,1095.83 839.65,1095.79 840.87,1095.01"/>
    </edge>
    <edge id=":1132110711_3" function="internal">
        <lane id=":1132110711_3_0" index="0" disallow="pedestrian tram rail_urban rail rail_electric rail_fast ship" speed="6.52" length="8.98" shape="837.22,1103.41 838.49,1101.33 840.13,1100.15 842.16,1099.87 844.56,1100.48"/>
    </edge>
    <edge id=":1132110711_4" function="internal">
        <lane id=":1132110711_4_0" index="0" disallow="pedestrian tram rail_urban rail rail_electric rail_fast ship" speed="11.11" length="9.16" shape="837.22,1103.41 840.87,1095.01"/>
    </edge>
    <edge id=":1132110711_5" function="internal">
        <lane id=":1132110711_5_0" index="0" disallow="pedestrian tram rail_urban rail rail_electric rail_fast ship" speed="3.65" length="4.67" shape="837.22,1103.41 836.96,1102.00 836.38,1101.31 835.48,1101.37 834.28,1102.16"/>
    </edge>
    <edge id=":1132110711_6" function="internal">
        <lane id=":1132110711_6_0" index="0" disallow="pedestrian tram rail_urban rail rail_electric rail_fast ship" speed="6.53" length="8.97" shape="831.37,1094.81 833.45,1096.12 834.63,1097.79 834.91,1099.80 834.28,1102.16"/>
    </edge>
    <edge id=":1132110711_7" function="internal">
        <lane id=":1132110711_7_0" index="0" disallow="pedestrian tram rail_urban rail rail_electric rail_fast ship" speed="8.33" length="14.35" shape="831.37,1094.81 844.56,1100.48"/>
    </edge>
    <edge id=":1132110711_8" function="internal">
        <lane id=":1132110711_8_0" index="0" disallow="pedestrian tram rail_urban rail rail_electric rail_fast ship" speed="6.92" length="10.37" shape="831.37,1094.81 834.96,1096.17 837.74,1096.66 839.71,1096.27 840.87,1095.01"/>
    </edge>
    <edge id=":1132110711_c0" function="crossing" crossingEdges="-97802007 97802007">
        <lane id=":1132110711_c0_0" index="0" allow="pedestrian" speed="1.00" length="6.40" width="4.00" shape="841.51,1097.49 835.67,1094.89"/>
    </edge>
    <edge id=":1132110711_c1" function="crossing" crossingEdges="22694324#1">
        <lane id=":1132110711_c1_0" index="0" allow="pedestrian" speed="1.00" length="3.20" width="4.00" shape="842.10,1101.20 843.31,1098.24"/>
    </edge>
    <edge id=":1132110711_c2" function="crossing" crossingEdges="-903010935 903010935">
        <lane id=":1132110711_c2_0" index="0" allow="pedestrian" speed="1.00" length="6.40" width="4.00" shape="833.59,1099.69 839.48,1102.20"/>
    </edge>
    <edge id=":1132110711_c3" function="crossing" crossingEdges="22694324#0">
        <lane id=":1132110711_c3_0" index="0" allow="pedestrian" speed="1.00" length="3.20" width="4.00" shape="833.86,1094.17 832.54,1097.09"/>
    </edge>
    <edge id=":1132110711_w0" function="walkingarea">
        <lane id=":1132110711_w0_0" index="0" allow="pedestrian" speed="1.00" length="2.16" width="4.00" shape="832.03,1093.35 834.66,1092.25 836.48,1093.06 836.12,1093.60 835.61,1093.94 834.94,1094.09 834.13,1094.04 833.16,1093.79"/>
    </edge>
    <edge id=":1132110711_w1" function="walkingarea">
        <lane id=":1132110711_w1_0" index="0" allow="pedestrian" speed="1.00" length="2.12" width="4.00" shape="842.33,1095.67 844.15,1096.48 845.16,1099.00 844.07,1098.49 843.22,1097.96 842.63,1097.42 842.28,1096.85 842.18,1096.27"/>
    </edge>
    <edge id=":1132110711_w2" function="walkingarea">
        <lane id=":1132110711_w2_0" index="0" allow="pedestrian" speed="1.00" length="3.29" width="4.00" shape="843.95,1101.96 843.19,1103.81 840.53,1104.83 838.69,1104.04 839.27,1102.98 839.96,1102.21 840.78,1101.72 841.71,1101.51 842.77,1101.59"/>
    </edge>
    <edge id=":1132110711_w3" function="walkingarea">
        <lane id=":1132110711_w3_0" index="0" allow="pedestrian" speed="1.00" length="3.30" width="4.00" shape="832.81,1101.53 830.97,1100.75 829.89,1098.09 830.72,1096.26 831.78,1096.87 832.56,1097.58 833.06,1098.40 833.26,1099.33 833.18,1100.38"/>
    </edge>
    <edge id=":1132110713_0" function="internal">
        <lane id=":1132110713_0_0" index="0" disallow="pedestrian tram rail_urban rail rail_electric rail_fast ship" speed="11.11" length="13.38" shape="583.66,1500.47 578.37,1512.76"/>
    </edge>
    <edge id=":1132110713_1" function="internal">
        <lane id=":1132110713_1_0" index="0" disallow="pedestrian tram rail_urban rail rail_electric rail_fast ship" speed="8.04" length="5.45" shape="583.66,1500.47 582.77,1504.03 583.11,1505.78"/>
    </edge>
    <edge id=":1132110713_2" function="internal">
        <lane id=":1132110713_2_0" index="0" disallow="pedestrian tram rail_urban rail rail_electric rail_fast ship" speed="3.65" length="2.34" shape="583.66,1500.47 583.92,1501.89 584.50,1502.57"/>
    </edge>
    <edge id=":1132110713_9" function="internal">
        <lane id=":1132110713_9_0" index="0" disallow="pedestrian tram rail_urban rail rail_electric rail_fast ship" speed="8.04" length="8.83" shape="583.11,1505.78 583.37,1507.10 585.46,1509.70 589.02,1511.82"/>
    </edge>
    <edge id=":1132110713_10" function="internal">
        <lane id=":1132110713_10_0" index="0" disallow="pedestrian tram rail_urban rail rail_electric rail_fast ship" speed="3.65" length="2.34" shape="584.50,1502.57 585.39,1502.52 586.60,1501.73"/>
    </edge>
    <edge id=":1132110713_3" function="internal">
        <lane id=":1132110713_3_0" index="0" disallow="pedestrian tram rail_urban rail rail_electric rail_fast ship" speed="6.58" length="9.22" shape="590.38,1508.92 587.98,1507.53 586.54,1505.86 586.09,1503.93 586.60,1501.73"/>
    </edge>
    <edge id=":1132110713_4" function="internal">
        <lane id=":1132110713_4_0" index="0" disallow="pedestrian tram rail_urban rail rail_electric rail_fast ship" speed="8.04" length="14.38" shape="590.38,1508.92 586.36,1507.74 583.02,1507.98 580.35,1509.66 578.37,1512.76"/>
    </edge>
    <edge id=":1132110713_5" function="internal">
        <lane id=":1132110713_5_0" index="0" disallow="pedestrian tram rail_urban rail rail_electric rail_fast ship" speed="3.65" length="4.68" shape="590.38,1508.92 588.96,1509.13 588.26,1509.69 588.28,1510.58 589.02,1511.82"/>
    </edge>
    <edge id=":1132110713_6" function="internal">
        <lane id=":1132110713_6_0" index="0" disallow="pedestrian tram rail_urban rail rail_electric rail_fast ship" speed="6.54" length="4.98" shape="581.30,1514.03 582.55,1512.13 584.25,1511.13 584.99,1511.10"/>
    </edge>
    <edge id=":1132110713_7" function="internal">
        <lane id=":1132110713_7_0" index="0" disallow="pedestrian tram rail_urban rail rail_electric rail_fast ship" speed="11.11" length="13.39" shape="581.30,1514.03 586.60,1501.73"/>
    </edge>
    <edge id=":1132110713_8" function="internal">
        <lane id=":1132110713_8_0" index="0" disallow="pedestrian tram rail_urban rail rail_electric rail_fast ship" speed="3.65" length="2.34" shape="581.30,1514.03 581.04,1512.61 580.47,1511.93"/>
    </edge>
    <edge id=":1132110713_11" function="internal">
        <lane id=":1132110713_11_0" index="0" disallow="pedestrian tram rail_urban rail rail_electric rail_fast ship" speed="6.54" length="4.16" shape="584.99,1511.10 586.41,1511.03 589.02,1511.82"/>
    </edge>
    <edge id=":1132110713_12" function="internal">
        <lane id=":1132110713_12_0" index="0" disallow="pedestrian tram rail_urban rail rail_electric rail_fast ship" speed="3.65" length="2.34" shape="580.47,1511.93 579.58,1511.98 578.37,1512.76"/>
    </edge>
    <edge id=":1132110713_c0" function="crossing" crossingEdges="4947932#2 -4947932#2">
        <lane id=":1132110713_c0_0" index="0" allow="pedestrian" speed="1.00" length="6.40" width="4.00" shape="587.28,1504.20 581.40,1501.68"/>
    </edge>
    <edge id=":1132110713_c1" function="crossing" crossingEdges="-97802006 97802006">
        <lane id=":1132110713_c1_0" index="0" allow="pedestrian" speed="1.00" length="6.40" width="4.00" shape="586.55,1512.49 589.19,1506.65"/>
    </edge>
    <edge id=":1132110713_c2" function="crossing" crossingEdges="-4947932#1 4947932#0">
        <lane id=":1132110713_c2_0" index="0" allow="pedestrian" speed="1.00" length="6.40" width="4.00" shape="577.69,1510.29 583.57,1512.83"/>
    </edge>
    <edge id=":1132110713_w0" function="walkingarea">
        <lane id=":1132110713_w0_0" index="0" allow="pedestrian" speed="1.00" length="8.45" width="4.00" shape="578.48,1508.45 576.90,1512.13 574.14,1510.94 579.43,1498.66 582.19,1499.84 580.61,1503.52"/>
    </edge>
    <edge id=":1132110713_w1" function="walkingarea">
        <lane id=":1132110713_w1_0" index="0" allow="pedestrian" speed="1.00" length="3.43" width="4.00" shape="588.07,1502.37 590.83,1503.55 591.89,1505.65 591.09,1507.48 589.74,1506.79 588.77,1506.05 588.12,1505.24 587.79,1504.35 587.77,1503.40"/>
    </edge>
    <edge id=":1132110713_w2" function="walkingarea">
        <lane id=":1132110713_w2_0" index="0" allow="pedestrian" speed="1.00" length="3.31" width="4.00" shape="588.32,1513.25 587.52,1515.09 585.53,1515.86 582.77,1514.67 583.31,1513.73 584.01,1513.08 584.87,1512.71 585.89,1512.62 587.06,1512.81"/>
    </edge>
    <edge id=":1132110715_0" function="internal">
        <lane id=":1132110715_0_0" index="0" disallow="pedestrian tram rail_urban rail rail_electric rail_fast ship" speed="13.89" length="0.24" shape="732.82,1533.09 732.59,1533.01"/>
    </edge>
    <edge id=":1132110715_1" function="internal">
        <lane id=":1132110715_1_0" index="0" disallow="pedestrian tram rail_urban rail rail_electric rail_fast ship" speed="13.89" length="0.31" shape="731.43,1535.99 731.72,1536.10"/>
    </edge>
    <edge id=":1132110715_c0" function="crossing" crossingEdges="-97802009 97802009">
        <lane id=":1132110715_c0_0" index="0" allow="pedestrian" speed="1.00" length="6.40" width="4.00" shape="729.30,1536.92 731.48,1530.91"/>
    </edge>
    <edge id=":1132110715_w0" function="walkingarea">
        <lane id=":1132110715_w0_0" index="0" allow="pedestrian" speed="1.00" length="1.50" width="4.00" shape="733.16,1531.52 733.89,1529.65 734.05,1529.71 733.36,1531.59 729.60,1530.22"/>
    </edge>
    <edge id=":1132110715_w1" function="walkingarea">
        <lane id=":1132110715_w1_0" index="0" allow="pedestrian" speed="1.00" length="1.51" width="4.00" shape="727.42,1536.24 731.18,1537.61 730.50,1539.49 730.13,1539.35 730.86,1537.48"/>
    </edge>
    <edge id=":1132110724_0" function="internal">
        <lane id=":1132110724_0_0" index="0" disallow="pedestrian tram rail_urban rail rail_electric rail_fast ship" speed="11.11" length="13.38" shape="687.37,1268.80 681.84,1280.99"/>
    </edge>
    <edge id=":1132110724_1" function="internal">
        <lane id=":1132110724_1_0" index="0" disallow="pedestrian tram rail_urban rail rail_electric rail_fast ship" speed="7.98" length="5.54" shape="687.37,1268.80 686.38,1272.44 686.69,1274.18"/>
    </edge>
    <edge id=":1132110724_2" function="internal">
        <lane id=":1132110724_2_0" index="0" disallow="pedestrian tram rail_urban rail rail_electric rail_fast ship" speed="3.65" length="2.34" shape="687.37,1268.80 687.60,1270.23 688.17,1270.92"/>
    </edge>
    <edge id=":1132110724_9" function="internal">
        <lane id=":1132110724_9_0" index="0" disallow="pedestrian tram rail_urban rail rail_electric rail_fast ship" speed="7.98" length="8.90" shape="686.69,1274.18 686.93,1275.55 689.01,1278.15 692.63,1280.24"/>
    </edge>
    <edge id=":1132110724_10" function="internal">
        <lane id=":1132110724_10_0" index="0" disallow="pedestrian tram rail_urban rail rail_electric rail_fast ship" speed="3.65" length="2.34" shape="688.17,1270.92 689.06,1270.88 690.28,1270.12"/>
    </edge>
    <edge id=":1132110724_3" function="internal">
        <lane id=":1132110724_3_0" index="0" disallow="pedestrian tram rail_urban rail rail_electric rail_fast ship" speed="6.49" length="9.17" shape="693.86,1277.28 691.49,1275.94 690.10,1274.30 689.70,1272.36 690.28,1270.12"/>
    </edge>
    <edge id=":1132110724_4" function="internal">
        <lane id=":1132110724_4_0" index="0" disallow="pedestrian tram rail_urban rail rail_electric rail_fast ship" speed="8.10" length="14.22" shape="693.86,1277.28 689.85,1276.16 686.51,1276.40 683.84,1278.01 681.84,1280.99"/>
    </edge>
    <edge id=":1132110724_5" function="internal">
        <lane id=":1132110724_5_0" index="0" disallow="pedestrian tram rail_urban rail rail_electric rail_fast ship" speed="3.65" length="4.67" shape="693.86,1277.28 692.45,1277.56 691.77,1278.14 691.83,1279.04 692.63,1280.24"/>
    </edge>
    <edge id=":1132110724_6" function="internal">
        <lane id=":1132110724_6_0" index="0" disallow="pedestrian tram rail_urban rail rail_electric rail_fast ship" speed="6.63" length="5.05" shape="684.75,1282.32 686.02,1280.50 687.75,1279.54 688.60,1279.51"/>
    </edge>
    <edge id=":1132110724_7" function="internal">
        <lane id=":1132110724_7_0" index="0" disallow="pedestrian tram rail_urban rail rail_electric rail_fast ship" speed="11.11" length="13.39" shape="684.75,1282.32 690.28,1270.12"/>
    </edge>
    <edge id=":1132110724_8" function="internal">
        <lane id=":1132110724_8_0" index="0" disallow="pedestrian tram rail_urban rail rail_electric rail_fast ship" speed="3.65" length="2.34" shape="684.75,1282.32 684.52,1280.89 683.96,1280.20"/>
    </edge>
    <edge id=":1132110724_11" function="internal">
        <lane id=":1132110724_11_0" index="0" disallow="pedestrian tram rail_urban rail rail_electric rail_fast ship" speed="6.63" length="4.14" shape="688.60,1279.51 689.95,1279.46 692.63,1280.24"/>
    </edge>
    <edge id=":1132110724_12" function="internal">
        <lane id=":1132110724_12_0" index="0" disallow="pedestrian tram rail_urban rail rail_electric rail_fast ship" speed="3.65" length="2.34" shape="683.96,1280.20 683.07,1280.23 681.84,1280.99"/>
    </edge>
    <edge id=":1132110724_c0" function="crossing" crossingEdges="630397201#1 -630397201#1">
        <lane id=":1132110724_c0_0" index="0" allow="pedestrian" speed="1.00" length="6.40" width="4.00" shape="690.92,1272.60 685.09,1269.97"/>
    </edge>
    <edge id=":1132110724_c1" function="crossing" crossingEdges="-165294354#1 165294354#1">
        <lane id=":1132110724_c1_0" index="0" allow="pedestrian" speed="1.00" length="6.40" width="4.00" shape="690.17,1280.94 692.63,1275.04"/>
    </edge>
    <edge id=":1132110724_c2" function="crossing" crossingEdges="-630397201#0 630397201#0">
        <lane id=":1132110724_c2_0" index="0" allow="pedestrian" speed="1.00" length="6.40" width="4.00" shape="681.21,1278.51 687.04,1281.16"/>
    </edge>
    <edge id=":1132110724_w0" function="walkingarea">
        <lane id=":1132110724_w0_0" index="0" allow="pedestrian" speed="1.00" length="8.45" width="4.00" shape="682.04,1276.69 680.39,1280.33 677.66,1279.09 683.18,1266.91 685.91,1268.14 684.26,1271.79"/>
    </edge>
    <edge id=":1132110724_w1" function="walkingarea">
        <lane id=":1132110724_w1_0" index="0" allow="pedestrian" speed="1.00" length="3.31" width="4.00" shape="691.74,1270.78 694.48,1272.01 695.24,1273.96 694.48,1275.80 693.23,1275.18 692.30,1274.47 691.69,1273.67 691.39,1272.79 691.41,1271.83"/>
    </edge>
    <edge id=":1132110724_w2" function="walkingarea">
        <lane id=":1132110724_w2_0" index="0" allow="pedestrian" speed="1.00" length="3.43" width="4.00" shape="692.02,1281.71 691.25,1283.56 688.94,1284.22 686.21,1282.98 686.76,1282.08 687.48,1281.46 688.37,1281.12 689.42,1281.04 690.63,1281.24"/>
    </edge>
    <edge id=":1132110726_0" function="internal">
        <lane id=":1132110726_0_0" index="0" disallow="pedestrian tram rail_urban rail rail_electric rail_fast ship" speed="3.65" length="4.67" shape="778.34,1165.07 776.93,1165.38 776.26,1165.97 776.34,1166.87 777.16,1168.05"/>
    </edge>
    <edge id=":1132110726_w0" function="walkingarea">
        <lane id=":1132110726_w0_0" index="0" allow="pedestrian" speed="1.00" length="8.40" width="2.00" shape="776.58,1169.54 775.85,1171.40 779.65,1161.72 778.92,1163.58"/>
    </edge>
    <edge id=":1132110727_0" function="internal">
        <lane id=":1132110727_0_0" index="0" disallow="pedestrian tram rail_urban rail rail_electric rail_fast ship" speed="6.43" length="5.07" shape="949.75,1263.18 948.65,1265.29 947.03,1266.46 946.34,1266.54"/>
    </edge>
    <edge id=":1132110727_1" function="internal">