<?xml version="1.0" encoding="UTF-8"?>

<!-- generated on 05/10/21 17:11:53 by Eclipse SUMO netedit Version 1.8.0
<configuration xmlns:xsi="http://www.w3.org/2001/XMLSchema-instance" xsi:noNamespaceSchemaLocation="http://sumo.dlr.de/xsd/netconvertConfiguration.xsd">

    <input>
        <osm-files value="D:\mosaic-installation-files\version-21.0\steglitz\dlsu-map.osm"/>
    </input>

    <output>
        <output-file value="D:\mosaic-installation-files\version-21.0\steglitz\dlsu-map.net.xml"/>
    </output>

    <projection>
        <proj.utm value="true"/>
    </projection>

    <processing>
        <geometry.remove value="true"/>
    </processing>

    <tls_building>
        <tls.discard-simple value="true"/>
        <tls.guess-signals value="true"/>
    </tls_building>

    <ramp_guessing>
        <ramps.guess value="true"/>
    </ramp_guessing>

    <junctions>
        <junctions.join value="true"/>
    </junctions>

    <report>
        <aggregate-warnings value="5"/>
    </report>

</configuration>
-->

<net version="1.6" junctionCornerDetail="5" limitTurnSpeed="5.50" xmlns:xsi="http://www.w3.org/2001/XMLSchema-instance" xsi:noNamespaceSchemaLocation="http://sumo.dlr.de/xsd/net_file.xsd">

    <location netOffset="-283472.61,-1611093.09" convBoundary="0.00,0.00,663.34,676.51" origBoundary="120.990267,14.564346,120.996434,14.570444" projParameter="+proj=utm +zone=51 +ellps=WGS84 +datum=WGS84 +units=m +no_defs"/>

    <type id="highway.bridleway" priority="1" numLanes="1" speed="2.78" allow="pedestrian" oneway="1" width="2.00"/>
    <type id="highway.bus_guideway" priority="1" numLanes="1" speed="27.78" allow="bus" oneway="1"/>
    <type id="highway.cycleway" priority="1" numLanes="1" speed="8.33" allow="bicycle" oneway="1" width="1.00"/>
    <type id="highway.footway" priority="1" numLanes="1" speed="2.78" allow="pedestrian" oneway="1" width="2.00"/>
    <type id="highway.ford" priority="1" numLanes="1" speed="2.78" allow="army" oneway="1"/>
    <type id="highway.living_street" priority="2" numLanes="1" speed="2.78" disallow="tram rail_urban rail rail_electric rail_fast ship" oneway="1"/>
    <type id="highway.motorway" priority="14" numLanes="2" speed="39.44" allow="private emergency authority army vip passenger hov taxi bus coach delivery truck trailer motorcycle evehicle custom1 custom2" oneway="1"/>
    <type id="highway.motorway_link" priority="9" numLanes="1" speed="22.22" allow="private emergency authority army vip passenger hov taxi bus coach delivery truck trailer motorcycle evehicle custom1 custom2" oneway="1"/>
    <type id="highway.path" priority="1" numLanes="1" speed="2.78" allow="pedestrian bicycle" oneway="1" width="2.00"/>
    <type id="highway.pedestrian" priority="1" numLanes="1" speed="2.78" allow="pedestrian" oneway="1" width="2.00"/>
    <type id="highway.primary" priority="12" numLanes="2" speed="27.78" disallow="tram rail_urban rail rail_electric rail_fast ship" oneway="1"/>
    <type id="highway.primary_link" priority="7" numLanes="1" speed="22.22" disallow="tram rail_urban rail rail_electric rail_fast ship" oneway="1"/>
    <type id="highway.raceway" priority="15" numLanes="2" speed="83.33" allow="vip" oneway="1"/>
    <type id="highway.residential" priority="3" numLanes="1" speed="13.89" disallow="tram rail_urban rail rail_electric rail_fast ship" oneway="1"/>
    <type id="highway.secondary" priority="11" numLanes="1" speed="27.78" disallow="tram rail_urban rail rail_electric rail_fast ship" oneway="1"/>
    <type id="highway.secondary_link" priority="6" numLanes="1" speed="22.22" disallow="tram rail_urban rail rail_electric rail_fast ship" oneway="1"/>
    <type id="highway.service" priority="1" numLanes="1" speed="5.56" allow="pedestrian delivery bicycle" oneway="1"/>
    <type id="highway.stairs" priority="1" numLanes="1" speed="1.39" allow="pedestrian" oneway="1" width="2.00"/>
    <type id="highway.step" priority="1" numLanes="1" speed="1.39" allow="pedestrian" oneway="1" width="2.00"/>
    <type id="highway.steps" priority="1" numLanes="1" speed="1.39" allow="pedestrian" oneway="1" width="2.00"/>
    <type id="highway.tertiary" priority="10" numLanes="1" speed="22.22" disallow="tram rail_urban rail rail_electric rail_fast ship" oneway="1"/>
    <type id="highway.tertiary_link" priority="5" numLanes="1" speed="22.22" disallow="tram rail_urban rail rail_electric rail_fast ship" oneway="1"/>
    <type id="highway.track" priority="1" numLanes="1" speed="5.56" allow="pedestrian motorcycle moped bicycle" oneway="1"/>
    <type id="highway.trunk" priority="13" numLanes="2" speed="27.78" disallow="pedestrian bicycle tram rail_urban rail rail_electric rail_fast ship" oneway="1"/>
    <type id="highway.trunk_link" priority="8" numLanes="1" speed="22.22" disallow="pedestrian bicycle tram rail_urban rail rail_electric rail_fast ship" oneway="1"/>
    <type id="highway.unclassified" priority="4" numLanes="1" speed="13.89" disallow="tram rail_urban rail rail_electric rail_fast ship" oneway="1"/>
    <type id="highway.unsurfaced" priority="1" numLanes="1" speed="8.33" disallow="tram rail_urban rail rail_electric rail_fast ship" oneway="1"/>
    <type id="railway.highspeed" priority="21" numLanes="1" speed="69.44" allow="rail_fast" oneway="1"/>
    <type id="railway.light_rail" priority="19" numLanes="1" speed="27.78" allow="rail_urban" oneway="1"/>
    <type id="railway.preserved" priority="16" numLanes="1" speed="27.78" allow="rail" oneway="1"/>
    <type id="railway.rail" priority="20" numLanes="1" speed="44.44" allow="rail" oneway="1"/>
    <type id="railway.subway" priority="18" numLanes="1" speed="27.78" allow="rail_urban" oneway="1"/>
    <type id="railway.tram" priority="17" numLanes="1" speed="13.89" allow="tram" oneway="1"/>

    <edge id=":1132110724_0" function="internal">
        <lane id=":1132110724_0_0" index="0" disallow="tram rail_urban rail rail_electric rail_fast ship" speed="6.64" length="9.19" shape="406.37,326.38 403.90,325.73 401.81,325.99 400.10,327.16 398.76,329.23"/>
    </edge>
    <edge id=":1132110724_1" function="internal">
        <lane id=":1132110724_1_0" index="0" disallow="tram rail_urban rail rail_electric rail_fast ship" speed="7.95" length="14.31" shape="406.37,326.38 402.98,324.37 401.09,321.77 400.69,318.58 401.79,314.80"/>
    </edge>
    <edge id=":1132110724_2" function="internal">
        <lane id=":1132110724_2_0" index="0" disallow="tram rail_urban rail rail_electric rail_fast ship" speed="3.65" length="4.67" shape="406.37,326.38 405.57,325.19 405.50,324.29 406.18,323.71 407.60,323.43"/>
    </edge>
    <edge id=":1132110724_3" function="internal">
        <lane id=":1132110724_3_0" index="0" disallow="tram rail_urban rail rail_electric rail_fast ship" speed="6.44" length="9.03" shape="404.71,316.11 404.01,318.50 404.27,320.52 405.46,322.16 407.60,323.43"/>
    </edge>
    <edge id=":1132110724_4" function="internal">
        <lane id=":1132110724_4_0" index="0" disallow="tram rail_urban rail rail_electric rail_fast ship" speed="11.11" length="14.40" shape="404.71,316.11 398.76,329.23"/>
    </edge>
    <edge id=":1132110724_5" function="internal">
        <lane id=":1132110724_5_0" index="0" disallow="tram rail_urban rail rail_electric rail_fast ship" speed="3.65" length="2.34" shape="404.71,316.11 403.48,316.88 402.59,316.91"/>
    </edge>
    <edge id=":1132110724_9" function="internal">
        <lane id=":1132110724_9_0" index="0" disallow="tram rail_urban rail rail_electric rail_fast ship" speed="3.65" length="2.34" shape="402.59,316.91 402.02,316.22 401.79,314.80"/>
    </edge>
    <edge id=":1132110724_6" function="internal">
        <lane id=":1132110724_6_0" index="0" disallow="tram rail_urban rail rail_electric rail_fast ship" speed="11.11" length="14.39" shape="395.85,327.90 401.79,314.80"/>
    </edge>
    <edge id=":1132110724_7" function="internal">
        <lane id=":1132110724_7_0" index="0" disallow="tram rail_urban rail rail_electric rail_fast ship" speed="8.11" length="5.86" shape="395.85,327.90 397.92,324.67 399.59,323.53"/>
    </edge>
    <edge id=":1132110724_8" function="internal">
        <lane id=":1132110724_8_0" index="0" disallow="tram rail_urban rail rail_electric rail_fast ship" speed="3.65" length="2.34" shape="395.85,327.90 397.07,327.14 397.97,327.11"/>
    </edge>
    <edge id=":1132110724_10" function="internal">
        <lane id=":1132110724_10_0" index="0" disallow="tram rail_urban rail rail_electric rail_fast ship" speed="8.11" length="8.38" shape="399.59,323.53 400.57,322.85 403.80,322.44 407.60,323.43"/>
    </edge>
    <edge id=":1132110724_11" function="internal">
        <lane id=":1132110724_11_0" index="0" disallow="tram rail_urban rail rail_electric rail_fast ship" speed="3.65" length="2.34" shape="397.97,327.11 398.53,327.80 398.76,329.23"/>
    </edge>
    <edge id=":1132110727_0" function="internal">
        <lane id=":1132110727_0_0" index="0" disallow="tram rail_urban rail rail_electric rail_fast ship" speed="3.65" length="4.67" shape="663.91,315.26 664.74,316.44 664.83,317.33 664.17,317.93 662.77,318.25"/>
    </edge>
    <edge id=":1132110732_0" function="internal">
        <lane id=":1132110732_0_0" index="0" disallow="tram rail_urban rail rail_electric rail_fast ship" speed="6.61" length="9.15" shape="380.58,382.91 378.14,382.24 376.07,382.48 374.35,383.64 373.01,385.70"/>
    </edge>
    <edge id=":1132110732_1" function="internal">
        <lane id=":1132110732_1_0" index="0" disallow="tram rail_urban rail rail_electric rail_fast ship" speed="7.96" length="14.27" shape="380.58,382.91 377.24,380.87 375.37,378.25 374.99,375.06 376.09,371.29"/>
    </edge>
    <edge id=":1132110732_2" function="internal">
        <lane id=":1132110732_2_0" index="0" disallow="tram rail_urban rail rail_electric rail_fast ship" speed="3.65" length="4.67" shape="380.58,382.91 379.80,381.70 379.75,380.81 380.43,380.23 381.85,379.97"/>
    </edge>
    <edge id=":1132110732_3" function="internal">
        <lane id=":1132110732_3_0" index="0" disallow="tram rail_urban rail rail_electric rail_fast ship" speed="6.46" length="9.03" shape="379.01,372.62 378.31,375.00 378.55,377.02 379.73,378.68 381.85,379.97"/>
    </edge>
    <edge id=":1132110732_4" function="internal">
        <lane id=":1132110732_4_0" index="0" disallow="tram rail_urban rail rail_electric rail_fast ship" speed="11.11" length="14.39" shape="379.01,372.62 373.01,385.70"/>
    </edge>
    <edge id=":1132110732_5" function="internal">
        <lane id=":1132110732_5_0" index="0" disallow="tram rail_urban rail rail_electric rail_fast ship" speed="3.65" length="2.34" shape="379.01,372.62 377.78,373.38 376.89,373.41"/>
    </edge>
    <edge id=":1132110732_9" function="internal">
        <lane id=":1132110732_9_0" index="0" disallow="tram rail_urban rail rail_electric rail_fast ship" speed="3.65" length="2.34" shape="376.89,373.41 376.32,372.72 376.09,371.29"/>
    </edge>
    <edge id=":1132110732_6" function="internal">
        <lane id=":1132110732_6_0" index="0" disallow="tram rail_urban rail rail_electric rail_fast ship" speed="11.11" length="14.38" shape="370.10,384.36 376.09,371.29"/>
    </edge>
    <edge id=":1132110732_7" function="internal">
        <lane id=":1132110732_7_0" index="0" disallow="tram rail_urban rail rail_electric rail_fast ship" speed="8.09" length="5.86" shape="370.10,384.36 372.20,381.14 373.86,380.01"/>
    </edge>
    <edge id=":1132110732_8" function="internal">
        <lane id=":1132110732_8_0" index="0" disallow="tram rail_urban rail rail_electric rail_fast ship" speed="3.65" length="2.34" shape="370.10,384.36 371.33,383.61 372.23,383.58"/>
    </edge>
    <edge id=":1132110732_10" function="internal">
        <lane id=":1132110732_10_0" index="0" disallow="tram rail_urban rail rail_electric rail_fast ship" speed="8.09" length="8.36" shape="373.86,380.01 374.86,379.33 378.07,378.94 381.85,379.97"/>
    </edge>
    <edge id=":1132110732_11" function="internal">
        <lane id=":1132110732_11_0" index="0" disallow="tram rail_urban rail rail_electric rail_fast ship" speed="3.65" length="2.34" shape="372.23,383.58 372.78,384.28 373.01,385.70"/>
    </edge>
    <edge id=":1132110733_0" function="internal">
        <lane id=":1132110733_0_0" index="0" disallow="tram rail_urban rail rail_electric rail_fast ship" speed="3.91" length="2.47" shape="451.43,217.71 450.77,217.55 450.22,217.63 449.75,217.95 449.39,218.51"/>
    </edge>
    <edge id=":1132110733_1" function="internal">
        <lane id=":1132110733_1_0" index="0" disallow="tram rail_urban rail rail_electric rail_fast ship" speed="6.08" length="7.42" shape="446.49,217.16 447.59,215.47 448.98,214.50 450.65,214.26 452.61,214.73"/>
    </edge>
    <edge id=":1132110734_0" function="internal">
        <lane id=":1132110734_0_0" index="0" disallow="tram rail_urban rail rail_electric rail_fast ship" speed="3.65" length="4.67" shape="541.20,448.44 541.98,449.65 542.03,450.54 541.35,451.12 539.93,451.38"/>
    </edge>
    <edge id=":1740381235_0" function="internal">
        <lane id=":1740381235_0_0" index="0" disallow="tram rail_urban rail rail_electric rail_fast ship" speed="6.54" length="9.07" shape="339.47,473.01 337.06,472.37 335.02,472.65 333.35,473.84 332.06,475.95"/>
    </edge>
    <edge id=":1740381235_1" function="internal">
        <lane id=":1740381235_1_0" index="0" disallow="tram rail_urban rail rail_electric rail_fast ship" speed="7.99" length="14.21" shape="339.47,473.01 336.12,471.00 334.23,468.41 333.79,465.23 334.80,461.47"/>
    </edge>
    <edge id=":1740381235_2" function="internal">
        <lane id=":1740381235_2_0" index="0" disallow="tram rail_urban rail rail_electric rail_fast ship" speed="3.65" length="4.67" shape="339.47,473.01 338.67,471.80 338.61,470.91 339.29,470.33 340.71,470.06"/>
    </edge>
    <edge id=":1740381235_3" function="internal">
        <lane id=":1740381235_3_0" index="0" disallow="tram rail_urban rail rail_electric rail_fast ship" speed="6.50" length="9.03" shape="337.74,462.72 337.10,465.12 337.38,467.14 338.58,468.78 340.71,470.06"/>
    </edge>
    <edge id=":1740381235_4" function="internal">
        <lane id=":1740381235_4_0" index="0" disallow="tram rail_urban rail rail_electric rail_fast ship" speed="11.11" length="14.39" shape="337.74,462.72 332.06,475.95"/>
    </edge>
    <edge id=":1740381235_5" function="internal">
        <lane id=":1740381235_5_0" index="0" disallow="tram rail_urban rail rail_electric rail_fast ship" speed="3.65" length="2.34" shape="337.74,462.72 336.53,463.51 335.64,463.57"/>
    </edge>
    <edge id=":1740381235_9" function="internal">
        <lane id=":1740381235_9_0" index="0" disallow="tram rail_urban rail rail_electric rail_fast ship" speed="3.65" length="2.34" shape="335.64,463.57 335.06,462.88 334.80,461.47"/>
    </edge>
    <edge id=":1740381235_6" function="internal">
        <lane id=":1740381235_6_0" index="0" disallow="tram rail_urban rail rail_electric rail_fast ship" speed="11.11" length="14.38" shape="329.12,474.68 334.80,461.47"/>
    </edge>
    <edge id=":1740381235_7" function="internal">
        <lane id=":1740381235_7_0" index="0" disallow="tram rail_urban rail rail_electric rail_fast ship" speed="8.03" length="5.89" shape="329.12,474.68 331.15,471.38 332.79,470.20"/>
    </edge>
    <edge id=":1740381235_8" function="internal">
        <lane id=":1740381235_8_0" index="0" disallow="tram rail_urban rail rail_electric rail_fast ship" speed="3.65" length="2.34" shape="329.12,474.68 330.33,473.89 331.22,473.84"/>
    </edge>
    <edge id=":1740381235_10" function="internal">
        <lane id=":1740381235_10_0" index="0" disallow="tram rail_urban rail rail_electric rail_fast ship" speed="8.03" length="8.30" shape="332.79,470.20 333.75,469.50 336.94,469.07 340.71,470.06"/>
    </edge>
    <edge id=":1740381235_11" function="internal">
        <lane id=":1740381235_11_0" index="0" disallow="tram rail_urban rail rail_electric rail_fast ship" speed="3.65" length="2.34" shape="331.22,473.84 331.80,474.53 332.06,475.95"/>
    </edge>
    <edge id=":1768561789_0" function="internal">
        <lane id=":1768561789_0_0" index="0" disallow="tram rail_urban rail rail_electric rail_fast ship" speed="9.72" length="0.15" shape="552.47,388.71 552.43,388.69 552.41,388.67 552.38,388.66 552.34,388.64"/>
    </edge>
    <edge id=":1768561789_1" function="internal">
        <lane id=":1768561789_1_0" index="0" disallow="tram rail_urban rail rail_electric rail_fast ship" speed="9.72" length="0.46" shape="553.62,385.71 553.75,385.77 553.83,385.80 553.91,385.85 554.03,385.91"/>
    </edge>
    <edge id=":1768565202_0" function="internal">
        <lane id=":1768565202_0_0" index="0" disallow="tram rail_urban rail rail_electric rail_fast ship" speed="3.65" length="4.67" shape="600.30,410.53 601.02,411.78 601.02,412.68 600.30,413.21 598.87,413.39"/>
    </edge>
    <edge id=":1769562391_0" function="internal">
        <lane id=":1769562391_0_0" index="0" disallow="tram rail_urban rail rail_electric rail_fast ship" speed="3.65" length="4.67" shape="502.21,262.15 502.99,263.36 503.03,264.25 502.34,264.83 500.92,265.07"/>
    </edge>
    <edge id=":1769562392_0" function="internal">
        <lane id=":1769562392_0_0" index="0" disallow="tram rail_urban rail rail_electric rail_fast ship" speed="6.56" length="9.12" shape="445.36,240.59 442.93,239.90 440.87,240.14 439.17,241.29 437.83,243.37"/>
    </edge>
    <edge id=":1769562392_1" function="internal">
        <lane id=":1769562392_1_0" index="0" disallow="tram rail_urban rail rail_electric rail_fast ship" speed="7.96" length="14.28" shape="445.36,240.59 442.03,238.51 440.19,235.88 439.84,232.68 440.98,228.93"/>
    </edge>
    <edge id=":1769562392_2" function="internal">
        <lane id=":1769562392_2_0" index="0" disallow="tram rail_urban rail rail_electric rail_fast ship" speed="3.65" length="4.67" shape="445.36,240.59 444.58,239.37 444.54,238.48 445.23,237.91 446.65,237.66"/>
    </edge>
    <edge id=":1769562392_3" function="internal">
        <lane id=":1769562392_3_0" index="0" disallow="tram rail_urban rail rail_electric rail_fast ship" speed="6.46" length="9.03" shape="443.88,230.28 443.15,232.66 443.38,234.68 444.54,236.35 446.65,237.66"/>
    </edge>
    <edge id=":1769562392_4" function="internal">
        <lane id=":1769562392_4_0" index="0" disallow="tram rail_urban rail rail_electric rail_fast ship" speed="11.11" length="14.42" shape="443.88,230.28 437.83,243.37"/>
    </edge>
    <edge id=":1769562392_5" function="internal">
        <lane id=":1769562392_5_0" index="0" disallow="tram rail_urban rail rail_electric rail_fast ship" speed="3.65" length="2.34" shape="443.88,230.28 442.64,231.03 441.75,231.05"/>
    </edge>
    <edge id=":1769562392_9" function="internal">
        <lane id=":1769562392_9_0" index="0" disallow="tram rail_urban rail rail_electric rail_fast ship" speed="3.65" length="2.34" shape="441.75,231.05 441.20,230.35 440.98,228.93"/>
    </edge>
    <edge id=":1769562392_6" function="internal">
        <lane id=":1769562392_6_0" index="0" disallow="tram rail_urban rail rail_electric rail_fast ship" speed="11.11" length="14.45" shape="434.92,242.05 440.98,228.93"/>
    </edge>
    <edge id=":1769562392_7" function="internal">
        <lane id=":1769562392_7_0" index="0" disallow="tram rail_urban rail rail_electric rail_fast ship" speed="8.05" length="5.96" shape="434.92,242.05 437.01,238.79 438.73,237.61"/>
    </edge>
    <edge id=":1769562392_8" function="internal">
        <lane id=":1769562392_8_0" index="0" disallow="tram rail_urban rail rail_electric rail_fast ship" speed="3.65" length="2.34" shape="434.92,242.05 436.15,241.29 437.04,241.25"/>
    </edge>
    <edge id=":1769562392_10" function="internal">
        <lane id=":1769562392_10_0" index="0" disallow="tram rail_urban rail rail_electric rail_fast ship" speed="8.05" length="8.28" shape="438.73,237.61 439.66,236.97 442.88,236.60 446.65,237.66"/>
    </edge>
    <edge id=":1769562392_11" function="internal">
        <lane id=":1769562392_11_0" index="0" disallow="tram rail_urban rail rail_electric rail_fast ship" speed="3.65" length="2.34" shape="437.04,241.25 437.60,241.95 437.83,243.37"/>
    </edge>
    <edge id=":241232835_0" function="internal">
        <lane id=":241232835_0_0" index="0" disallow="tram rail_urban rail rail_electric rail_fast ship" speed="3.65" length="4.67" shape="1.24,476.16 -0.14,476.58 -1.01,476.39 -1.38,475.57 -1.24,474.14"/>
    </edge>
    <edge id=":241232861_0" function="internal">
        <lane id=":241232861_0_0" index="0" disallow="tram rail_urban rail rail_electric rail_fast ship" speed="6.80" length="9.40" shape="74.59,388.70 72.05,387.98 69.87,388.16 68.06,389.25 66.61,391.23"/>
    </edge>
    <edge id=":241232861_1" function="internal">
        <lane id=":241232861_1_0" index="0" disallow="tram rail_urban rail rail_electric rail_fast ship" speed="7.89" length="14.45" shape="74.59,388.70 71.18,386.62 69.33,383.97 69.05,380.75 70.34,376.97"/>
    </edge>
    <edge id=":241232861_2" function="internal">
        <lane id=":241232861_2_0" index="0" disallow="tram rail_urban rail rail_electric rail_fast ship" speed="3.65" length="4.67" shape="74.59,388.70 73.80,387.49 73.75,386.60 74.43,386.02 75.85,385.76"/>
    </edge>
    <edge id=":241232861_3" function="internal">
        <lane id=":241232861_3_0" index="0" disallow="tram rail_urban rail rail_electric rail_fast ship" speed="6.37" length="9.04" shape="73.19,378.42 72.39,380.79 72.56,382.80 73.72,384.45 75.85,385.76"/>
    </edge>
    <edge id=":241232861_4" function="internal">
        <lane id=":241232861_4_0" index="0" disallow="tram rail_urban rail rail_electric rail_fast ship" speed="5.56" length="14.41" shape="73.19,378.42 66.61,391.23"/>
    </edge>
    <edge id=":241232861_5" function="internal">
        <lane id=":241232861_5_0" index="0" disallow="tram rail_urban rail rail_electric rail_fast ship" speed="3.65" length="4.67" shape="73.19,378.42 71.94,379.13 71.04,379.12 70.51,378.40 70.34,376.97"/>
    </edge>
    <edge id=":241232861_6" function="internal">
        <lane id=":241232861_6_0" index="0" disallow="tram rail_urban rail rail_electric rail_fast ship" speed="5.56" length="14.39" shape="63.77,389.76 70.34,376.97"/>
    </edge>
    <edge id=":241232861_7" function="internal">
        <lane id=":241232861_7_0" index="0" disallow="tram rail_urban rail rail_electric rail_fast ship" speed="8.25" length="14.29" shape="63.77,389.76 65.98,386.69 68.74,385.00 72.02,384.69 75.85,385.76"/>
    </edge>
    <edge id=":241232861_8" function="internal">
        <lane id=":241232861_8_0" index="0" disallow="tram rail_urban rail rail_electric rail_fast ship" speed="3.65" length="4.67" shape="63.77,389.76 65.03,389.06 65.93,389.08 66.45,389.80 66.61,391.23"/>
    </edge>
    <edge id=":241232863_0" function="internal">
        <lane id=":241232863_0_0" index="0" disallow="tram rail_urban rail rail_electric rail_fast ship" speed="6.99" length="9.80" shape="123.17,298.02 120.58,297.27 118.32,297.47 116.40,298.60 114.82,300.68"/>
    </edge>
    <edge id=":241232863_1" function="internal">
        <lane id=":241232863_1_0" index="0" disallow="tram rail_urban rail rail_electric rail_fast ship" speed="13.89" length="14.92" shape="123.17,298.02 119.77,296.47 116.43,294.83 113.13,293.10 109.87,291.28"/>
    </edge>
    <edge id=":241232863_2" function="internal">
        <lane id=":241232863_2_0" index="0" disallow="tram rail_urban rail rail_electric rail_fast ship" speed="7.98" length="6.15" shape="123.17,298.02 119.83,295.93 118.58,294.11"/>
    </edge>
    <edge id=":241232863_3" function="internal">
        <lane id=":241232863_3_0" index="0" disallow="tram rail_urban rail rail_electric rail_fast ship" speed="3.65" length="2.34" shape="123.17,298.02 122.39,296.80 122.35,295.91"/>
    </edge>
    <edge id=":241232863_16" function="internal">
        <lane id=":241232863_16_0" index="0" disallow="tram rail_urban rail rail_electric rail_fast ship" speed="7.98" length="8.29" shape="118.58,294.11 118.00,293.26 117.69,290.02 118.90,286.20"/>
    </edge>
    <edge id=":241232863_17" function="internal">
        <lane id=":241232863_17_0" index="0" disallow="tram rail_urban rail rail_electric rail_fast ship" speed="3.65" length="2.34" shape="122.35,295.91 123.04,295.34 124.46,295.09"/>
    </edge>
    <edge id=":241232863_4" function="internal">
        <lane id=":241232863_4_0" index="0" disallow="tram rail_urban rail rail_electric rail_fast ship" speed="6.48" length="9.16" shape="121.78,287.58 121.01,290.01 121.20,292.07 122.35,293.76 124.46,295.09"/>
    </edge>
    <edge id=":241232863_5" function="internal">
        <lane id=":241232863_5_0" index="0" disallow="tram rail_urban rail rail_electric rail_fast ship" speed="5.56" length="14.84" shape="121.78,287.58 114.82,300.68"/>
    </edge>
    <edge id=":241232863_6" function="internal">
        <lane id=":241232863_6_0" index="0" disallow="tram rail_urban rail rail_electric rail_fast ship" speed="7.87" length="14.49" shape="121.78,287.58 119.55,290.92 116.82,292.65 113.60,292.77 109.87,291.28"/>
    </edge>
    <edge id=":241232863_7" function="internal">
        <lane id=":241232863_7_0" index="0" disallow="tram rail_urban rail rail_electric rail_fast ship" speed="3.65" length="4.67" shape="121.78,287.58 120.55,288.32 119.65,288.33 119.10,287.62 118.90,286.20"/>
    </edge>
    <edge id=":241232863_8" function="internal">
        <lane id=":241232863_8_0" index="0" disallow="tram rail_urban rail rail_electric rail_fast ship" speed="6.35" length="9.04" shape="111.46,288.51 113.79,289.43 115.80,289.36 117.51,288.28 118.90,286.20"/>
    </edge>
    <edge id=":241232863_9" function="internal">
        <lane id=":241232863_9_0" index="0" disallow="tram rail_urban rail rail_electric rail_fast ship" speed="13.89" length="14.57" shape="111.46,288.51 114.68,290.30 117.87,291.98 121.10,293.56 124.46,295.09"/>
    </edge>
    <edge id=":241232863_10" function="internal">
        <lane id=":241232863_10_0" index="0" disallow="tram rail_urban rail rail_electric rail_fast ship" speed="8.08" length="5.74" shape="111.46,288.51 114.55,290.93 115.44,292.51"/>
    </edge>
    <edge id=":241232863_11" function="internal">
        <lane id=":241232863_11_0" index="0" disallow="tram rail_urban rail rail_electric rail_fast ship" speed="3.65" length="2.34" shape="111.46,288.51 112.10,289.80 112.05,290.69"/>
    </edge>
    <edge id=":241232863_18" function="internal">
        <lane id=":241232863_18_0" index="0" disallow="tram rail_urban rail rail_electric rail_fast ship" speed="8.08" length="8.62" shape="115.44,292.51 116.14,293.76 116.23,297.01 114.82,300.68"/>
    </edge>
    <edge id=":241232863_19" function="internal">
        <lane id=":241232863_19_0" index="0" disallow="tram rail_urban rail rail_electric rail_fast ship" speed="3.65" length="2.34" shape="112.05,290.69 111.31,291.18 109.87,291.28"/>
    </edge>
    <edge id=":241232863_12" function="internal">
        <lane id=":241232863_12_0" index="0" disallow="tram rail_urban rail rail_electric rail_fast ship" speed="6.58" length="9.17" shape="112.07,299.04 112.96,296.71 112.89,294.64 111.86,292.83 109.87,291.28"/>
    </edge>
    <edge id=":241232863_13" function="internal">
        <lane id=":241232863_13_0" index="0" disallow="tram rail_urban rail rail_electric rail_fast ship" speed="5.56" length="14.54" shape="112.07,299.04 118.90,286.20"/>
    </edge>
    <edge id=":241232863_14" function="internal">
        <lane id=":241232863_14_0" index="0" disallow="tram rail_urban rail rail_electric rail_fast ship" speed="8.38" length="14.53" shape="112.07,299.04 114.42,295.96 117.27,294.28 120.62,293.99 124.46,295.09"/>
    </edge>
    <edge id=":241232863_15" function="internal">
        <lane id=":241232863_15_0" index="0" disallow="tram rail_urban rail rail_electric rail_fast ship" speed="3.65" length="4.68" shape="112.07,299.04 113.37,298.41 114.26,298.48 114.74,299.23 114.82,300.68"/>
    </edge>
    <edge id=":32614798_0" function="internal">
        <lane id=":32614798_0_0" index="0" disallow="tram rail_urban rail rail_electric rail_fast ship" speed="3.65" length="4.67" shape="94.88,591.11 93.71,591.95 92.82,592.05 92.21,591.39 91.88,589.98"/>
    </edge>
    <edge id=":32614801_0" function="internal">
        <lane id=":32614801_0_0" index="0" disallow="tram rail_urban rail rail_electric rail_fast ship" speed="3.65" length="4.67" shape="108.05,64.11 107.43,62.81 107.50,61.92 108.25,61.44 109.69,61.37"/>
    </edge>
    <edge id=":32614909_0" function="internal">
        <lane id=":32614909_0_0" index="0" disallow="tram rail_urban rail rail_electric rail_fast ship" speed="3.65" length="4.67" shape="239.72,677.23 238.46,677.94 237.57,677.94 237.04,677.22 236.86,675.79"/>
    </edge>
    <edge id=":3306743450_0" function="internal">
        <lane id=":3306743450_0_0" index="0" disallow="tram rail_urban rail rail_electric rail_fast ship" speed="3.65" length="4.67" shape="35.01,224.81 34.15,223.64 34.05,222.76 34.71,222.14 36.11,221.80"/>
    </edge>
    <edge id=":3306743452_0" function="internal">
        <lane id=":3306743452_0_0" index="0" disallow="tram rail_urban rail rail_electric rail_fast ship" speed="5.56" length="14.38" shape="137.26,255.35 131.00,268.30"/>
    </edge>
    <edge id=":3306743452_1" function="internal">
        <lane id=":3306743452_1_0" index="0" disallow="tram rail_urban rail rail_electric rail_fast ship" speed="7.89" length="14.45" shape="137.26,255.35 135.01,258.66 132.28,260.37 129.05,260.49 125.33,259.02"/>